@<TRIPOS>MOLECULE
generated by VMD
  282    0    1    0    0
SMALL
NO_CHARGES
****
Energy = 0

@<TRIPOS>ATOM
      1  N         33.2400   12.9000   51.5250    N    2  ALA        0.000000
      2  H1        33.5200   13.8000   51.1550   H1    2  ALA        0.000000
      3  H2        32.6900   12.4000   50.8350   H2    2  ALA        0.000000
      4  H3        32.6500   13.1100   52.3150   H3    2  ALA        0.000000
      5  CA        34.4800   12.1800   51.8450   CA    2  ALA        0.000000
      6  HA        34.9600   12.8200   52.5750   HA    2  ALA        0.000000
      7  CB        34.0900   10.8300   52.4450   CB    2  ALA        0.000000
      8  HB1       34.8400   10.0500   52.2850  HB1    2  ALA        0.000000
      9  HB2       33.9800   10.8500   53.5350  HB2    2  ALA        0.000000
     10  HB3       33.2200   10.4200   51.9350  HB3    2  ALA        0.000000
     11  C         35.3100   12.0900   50.5750    C    2  ALA        0.000000
     12  O         34.7400   12.3500   49.5200    O    2  ALA        0.000000
     13  N         36.5700   11.6900   50.7850    N    3  TYR        0.000000
     14  H         36.7800   11.6500   51.7750    H    3  TYR        0.000000
     15  CA        37.6100   11.4700   49.8100   CA    3  TYR        0.000000
     16  HA        37.5100   12.2500   49.0500   HA    3  TYR        0.000000
     17  CB        38.9100   11.3900   50.6250   CB    3  TYR        0.000000
     18  HB1       38.9200   12.2700   51.2650  HB1    3  TYR        0.000000
     19  HB2       38.8100   10.5400   51.2950  HB2    3  TYR        0.000000
     20  CG        40.2400   11.4700   49.9300   CG    3  TYR        0.000000
     21  CD1       40.6900   12.5900   49.2200  CD1    3  TYR        0.000000
     22  HD1       40.0400   13.4500   49.1000  HD1    3  TYR        0.000000
     23  CD2       41.1100   10.3800   50.1000  CD2    3  TYR        0.000000
     24  HD2       40.6900    9.5000   50.5750  HD2    3  TYR        0.000000
     25  CE1       41.9500   12.5600   48.6000  CE1    3  TYR        0.000000
     26  HE1       42.1500   13.4600   48.0400  HE1    3  TYR        0.000000
     27  CE2       42.3700   10.3600   49.5100  CE2    3  TYR        0.000000
     28  HE2       43.0300    9.5100   49.6400  HE2    3  TYR        0.000000
     29  CZ        42.8000   11.4600   48.7600   CZ    3  TYR        0.000000
     30  OH        44.0300   11.4600   48.1600   OH    3  TYR        0.000000
     31  HH        44.3700   10.6300   47.8700   HH    3  TYR        0.000000
     32  C         37.3900   10.1400   49.1200    C    3  TYR        0.000000
     33  O         37.7100    9.0900   49.6800    O    3  TYR        0.000000
     34  N         36.8100   10.1400   47.9100    N    4  PHE        0.000000
     35  H         36.6000   10.9800   47.4000    H    4  PHE        0.000000
     36  CA        36.4700    8.9500   47.1600   CA    4  PHE        0.000000
     37  HA        36.0900    8.1700   47.8200   HA    4  PHE        0.000000
     38  CB        35.4000    9.1500   46.0800   CB    4  PHE        0.000000
     39  HB1       35.8100    9.9500   45.4700  HB1    4  PHE        0.000000
     40  HB2       35.3200    8.2500   45.4700  HB2    4  PHE        0.000000
     41  CG        34.0200    9.5900   46.5100   CG    4  PHE        0.000000
     42  CD1       33.5000   10.8300   46.1200  CD1    4  PHE        0.000000
     43  HD1       34.1900   11.5800   45.7600  HD1    4  PHE        0.000000
     44  CD2       33.1300    8.6000   46.9600  CD2    4  PHE        0.000000
     45  HD2       33.4600    7.6400   47.3000  HD2    4  PHE        0.000000
     46  CE1       32.1200   11.0600   46.1200  CE1    4  PHE        0.000000
     47  HE1       31.8200   12.0000   45.6700  HE1    4  PHE        0.000000
     48  CE2       31.7600    8.8800   47.1000  CE2    4  PHE        0.000000
     49  HE2       31.1200    8.1400   47.5600  HE2    4  PHE        0.000000
     50  CZ        31.2500   10.0900   46.6300   CZ    4  PHE        0.000000
     51  HZ        30.2000   10.3200   46.7400   HZ    4  PHE        0.000000
     52  C         37.6800    8.3800   46.4400    C    4  PHE        0.000000
     53  O         37.5800    7.4200   45.6700    O    4  PHE        0.000000
     54  N         38.8900    8.9400   46.5500    N    5  PHE        0.000000
     55  H         38.9800    9.8700   46.9400    H    5  PHE        0.000000
     56  CA        40.0500    8.4600   45.8300   CA    5  PHE        0.000000
     57  HA        39.6400    8.1400   44.8700   HA    5  PHE        0.000000
     58  CB        41.0600    9.5900   45.6100   CB    5  PHE        0.000000
     59  HB1       41.2900    9.9100   46.6200  HB1    5  PHE        0.000000
     60  HB2       41.9900    9.1900   45.2100  HB2    5  PHE        0.000000
     61  CG        40.5400   10.7500   44.7900   CG    5  PHE        0.000000
     62  CD1       40.3100   11.9400   45.4900  CD1    5  PHE        0.000000
     63  HD1       40.6100   12.0400   46.5200  HD1    5  PHE        0.000000
     64  CD2       40.2400   10.6400   43.4300  CD2    5  PHE        0.000000
     65  HD2       40.4800    9.7200   42.9100  HD2    5  PHE        0.000000
     66  CE1       39.8500   13.0000   44.7000  CE1    5  PHE        0.000000
     67  HE1       39.6500   13.9500   45.1800  HE1    5  PHE        0.000000
     68  CE2       39.7100   11.7000   42.6800  CE2    5  PHE        0.000000
     69  HE2       39.3000   11.5700   41.6900  HE2    5  PHE        0.000000
     70  CZ        39.5300   12.9200   43.3400   CZ    5  PHE        0.000000
     71  HZ        39.1500   13.7700   42.7800   HZ    5  PHE        0.000000
     72  C         40.7700    7.2900   46.4900    C    5  PHE        0.000000
     73  O         40.9600    7.3800   47.7000    O    5  PHE        0.000000
     74  N         41.1600    6.2600   45.7400    N    6  PHE        0.000000
     75  H         40.6800    6.2000   44.8500    H    6  PHE        0.000000
     76  CA        41.9700    5.1400   46.1700   CA    6  PHE        0.000000
     77  HA        42.8800    5.5600   46.6200   HA    6  PHE        0.000000
     78  CB        41.1900    4.2900   47.1800   CB    6  PHE        0.000000
     79  HB1       41.7000    3.3300   47.3100  HB1    6  PHE        0.000000
     80  HB2       41.1000    4.6900   48.1900  HB2    6  PHE        0.000000
     81  CG        39.7900    3.8200   46.8800   CG    6  PHE        0.000000
     82  CD1       38.8000    4.6500   47.4300  CD1    6  PHE        0.000000
     83  HD1       39.1000    5.6100   47.8000  HD1    6  PHE        0.000000
     84  CD2       39.4400    2.6700   46.1600  CD2    6  PHE        0.000000
     85  HD2       40.1600    2.0500   45.6600  HD2    6  PHE        0.000000
     86  CE1       37.4400    4.3300   47.3200  CE1    6  PHE        0.000000
     87  HE1       36.7000    4.9900   47.7300  HE1    6  PHE        0.000000
     88  CE2       38.0800    2.3200   46.1400  CE2    6  PHE        0.000000
     89  HE2       37.8400    1.4400   45.5600  HE2    6  PHE        0.000000
     90  CZ        37.0900    3.1000   46.7400   CZ    6  PHE        0.000000
     91  HZ        36.0400    2.8500   46.7400   HZ    6  PHE        0.000000
     92  C         42.2800    4.3500   44.9100    C    6  PHE        0.000000
     93  O1        43.0100    3.3400   44.9800   O1    6  PHE        0.000000
     94  O2        41.9300    4.7200   43.7700   O2    6  PHE        0.000000
     95  N         46.2300    6.6700   44.2500    N    2  ALA        0.000000
     96  H1        46.5900    7.6100   44.1600   H1    2  ALA        0.000000
     97  H2        45.9200    6.4900   45.2000   H2    2  ALA        0.000000
     98  H3        46.9000    5.9800   43.9600   H3    2  ALA        0.000000
     99  CA        45.0500    6.5800   43.3800   CA    2  ALA        0.000000
    100  HA        44.9100    5.5000   43.3400   HA    2  ALA        0.000000
    101  CB        43.8400    7.4100   43.8100   CB    2  ALA        0.000000
    102  HB1       44.0700    8.4700   43.6400  HB1    2  ALA        0.000000
    103  HB2       42.9000    7.1600   43.3200  HB2    2  ALA        0.000000
    104  HB3       43.7300    7.3800   44.8900  HB3    2  ALA        0.000000
    105  C         45.5700    6.9400   41.9900    C    2  ALA        0.000000
    106  O         46.3900    7.8600   41.9100    O    2  ALA        0.000000
    107  N         45.1300    6.1800   40.9900    N    3  TYR        0.000000
    108  H         44.3900    5.5000   41.0800    H    3  TYR        0.000000
    109  CA        45.6300    6.4200   39.6500   CA    3  TYR        0.000000
    110  HA        46.6700    6.7300   39.6600   HA    3  TYR        0.000000
    111  CB        45.6400    5.0200   39.0400   CB    3  TYR        0.000000
    112  HB1       44.7300    4.4300   39.1600  HB1    3  TYR        0.000000
    113  HB2       45.7200    5.1000   37.9500  HB2    3  TYR        0.000000
    114  CG        46.7900    4.1400   39.4700   CG    3  TYR        0.000000
    115  CD1       47.9900    4.3600   38.7900  CD1    3  TYR        0.000000
    116  HD1       47.9300    5.0600   37.9700  HD1    3  TYR        0.000000
    117  CD2       46.7300    3.1900   40.5000  CD2    3  TYR        0.000000
    118  HD2       45.8400    3.1000   41.1000  HD2    3  TYR        0.000000
    119  CE1       49.1300    3.6000   39.1000  CE1    3  TYR        0.000000
    120  HE1       50.0300    3.8300   38.5400  HE1    3  TYR        0.000000
    121  CE2       47.8500    2.4300   40.8500  CE2    3  TYR        0.000000
    122  HE2       47.8500    1.8200   41.7400  HE2    3  TYR        0.000000
    123  CZ        49.0200    2.6300   40.0900   CZ    3  TYR        0.000000
    124  OH        50.0900    1.8300   40.3900   OH    3  TYR        0.000000
    125  HH        50.6350    1.9800   39.6300   HH    3  TYR        0.000000
    126  C         44.6600    7.2700   38.8400    C    3  TYR        0.000000
    127  O         43.4900    7.3600   39.1700    O    3  TYR        0.000000
    128  N         45.1600    7.8500   37.7400    N    4  PHE        0.000000
    129  H         46.1500    7.7800   37.5900    H    4  PHE        0.000000
    130  CA        44.4500    8.5500   36.6800   CA    4  PHE        0.000000
    131  HA        43.5500    7.9600   36.4600   HA    4  PHE        0.000000
    132  CB        44.2200   10.0100   37.0700   CB    4  PHE        0.000000
    133  HB1       43.5700   10.4500   36.3200  HB1    4  PHE        0.000000
    134  HB2       43.6400    9.9800   37.9900  HB2    4  PHE        0.000000
    135  CG        45.4600   10.8300   37.3100   CG    4  PHE        0.000000
    136  CD1       46.0100   10.7800   38.6000  CD1    4  PHE        0.000000
    137  HD1       45.4900   10.2000   39.3500  HD1    4  PHE        0.000000
    138  CD2       46.0700   11.6400   36.3500  CD2    4  PHE        0.000000
    139  HD2       45.7200   11.8100   35.3400  HD2    4  PHE        0.000000
    140  CE1       47.1100   11.5600   38.9600  CE1    4  PHE        0.000000
    141  HE1       47.4800   11.5800   39.9700  HE1    4  PHE        0.000000
    142  CE2       47.1600   12.4300   36.7300  CE2    4  PHE        0.000000
    143  HE2       47.5400   13.1900   36.0600  HE2    4  PHE        0.000000
    144  CZ        47.7200   12.4000   38.0100   CZ    4  PHE        0.000000
    145  HZ        48.6400   12.9200   38.2600   HZ    4  PHE        0.000000
    146  C         45.2800    8.4800   35.4100    C    4  PHE        0.000000
    147  O         46.4800    8.2200   35.4100    O    4  PHE        0.000000
    148  N         44.5800    8.4700   34.2700    N    5  PHE        0.000000
    149  H         43.5900    8.5600   34.4300    H    5  PHE        0.000000
    150  CA        45.1300    8.2500   32.9500   CA    5  PHE        0.000000
    151  HA        45.8100    7.3900   32.9600   HA    5  PHE        0.000000
    152  CB        43.9100    8.1000   32.0600   CB    5  PHE        0.000000
    153  HB1       43.2700    8.9600   32.2900  HB1    5  PHE        0.000000
    154  HB2       44.1800    8.1200   31.0000  HB2    5  PHE        0.000000
    155  CG        43.2700    6.7300   32.1700   CG    5  PHE        0.000000
    156  CD1       43.7900    5.5800   31.5700  CD1    5  PHE        0.000000
    157  HD1       44.6200    5.6100   30.8800  HD1    5  PHE        0.000000
    158  CD2       42.1000    6.6500   32.9300  CD2    5  PHE        0.000000
    159  HD2       41.7100    7.5600   33.3600  HD2    5  PHE        0.000000
    160  CE1       43.2400    4.3300   31.8700  CE1    5  PHE        0.000000
    161  HE1       43.8400    3.4800   31.5700  HE1    5  PHE        0.000000
    162  CE2       41.4700    5.4100   33.1300  CE2    5  PHE        0.000000
    163  HE2       40.4700    5.3900   33.5600  HE2    5  PHE        0.000000
    164  CZ        42.1200    4.2500   32.7100   CZ    5  PHE        0.000000
    165  HZ        41.7200    3.2600   32.8600   HZ    5  PHE        0.000000
    166  C         45.8400    9.4800   32.4100    C    5  PHE        0.000000
    167  O         45.4900   10.5900   32.7800    O    5  PHE        0.000000
    168  N         46.8400    9.2900   31.5300    N    6  PHE        0.000000
    169  H         47.1600    8.3500   31.3600    H    6  PHE        0.000000
    170  CA        47.3800   10.3600   30.7200   CA    6  PHE        0.000000
    171  HA        46.6200   11.1400   30.6700   HA    6  PHE        0.000000
    172  CB        48.5900   10.9600   31.4200   CB    6  PHE        0.000000
    173  HB1       48.5200   11.0900   32.5000  HB1    6  PHE        0.000000
    174  HB2       49.3900   10.2200   31.3300  HB2    6  PHE        0.000000
    175  CG        49.1200   12.2700   30.9000   CG    6  PHE        0.000000
    176  CD1       48.4200   13.4600   31.1400  CD1    6  PHE        0.000000
    177  HD1       47.5100   13.5700   31.7100  HD1    6  PHE        0.000000
    178  CD2       50.2750   12.3200   30.1200  CD2    6  PHE        0.000000
    179  HD2       50.8450   11.4500   29.8000  HD2    6  PHE        0.000000
    180  CE1       48.8800   14.6500   30.5500  CE1    6  PHE        0.000000
    181  HE1       48.3500   15.5800   30.6800  HE1    6  PHE        0.000000
    182  CE2       50.7050   13.5500   29.6300  CE2    6  PHE        0.000000
    183  HE2       51.5550   13.5400   28.9600  HE2    6  PHE        0.000000
    184  CZ        50.1300   14.7900   29.9300   CZ    6  PHE        0.000000
    185  HZ        50.5350   15.6500   29.4300   HZ    6  PHE        0.000000
    186  C         47.5700    9.8700   29.2900    C    6  PHE        0.000000
    187  O1        46.7800   10.3000   28.4300   O1    6  PHE        0.000000
    188  O2        48.5100    9.0800   29.0100   O2    6  PHE        0.000000
    189  N         48.8600    6.4100   29.0200    N    2  ALA        0.000000
    190  H1        48.0400    5.8300   29.1600   H1    2  ALA        0.000000
    191  H2        48.6500    7.4000   28.9900   H2    2  ALA        0.000000
    192  H3        49.2000    6.0600   28.1400   H3    2  ALA        0.000000
    193  CA        49.7200    5.9700   30.1300   CA    2  ALA        0.000000
    194  HA        49.8300    4.8900   30.0300   HA    2  ALA        0.000000
    195  CB        51.0150    6.7800   30.2100   CB    2  ALA        0.000000
    196  HB1       51.5150    6.6400   31.1600  HB1    2  ALA        0.000000
    197  HB2       51.7250    6.3300   29.5000  HB2    2  ALA        0.000000
    198  HB3       50.9650    7.8600   30.0800  HB3    2  ALA        0.000000
    199  C         48.9500    6.1900   31.4200    C    2  ALA        0.000000
    200  O         47.8400    6.7000   31.3200    O    2  ALA        0.000000
    201  N         49.4900    5.7300   32.5500    N    3  TYR        0.000000
    202  H         50.3250    5.1600   32.4900    H    3  TYR        0.000000
    203  CA        48.9500    6.0200   33.8700   CA    3  TYR        0.000000
    204  HA        47.9100    6.3500   33.8200   HA    3  TYR        0.000000
    205  CB        48.8800    4.7700   34.7500   CB    3  TYR        0.000000
    206  HB1       49.8400    4.2600   34.6200  HB1    3  TYR        0.000000
    207  HB2       49.0300    5.0100   35.8000  HB2    3  TYR        0.000000
    208  CG        47.7200    3.8300   34.5300   CG    3  TYR        0.000000
    209  CD1       46.5200    4.1100   35.2000  CD1    3  TYR        0.000000
    210  HD1       46.5300    5.0100   35.7900  HD1    3  TYR        0.000000
    211  CD2       47.7300    2.6700   33.7500  CD2    3  TYR        0.000000
    212  HD2       48.6100    2.4500   33.1600  HD2    3  TYR        0.000000
    213  CE1       45.5000    3.1400   35.2500  CE1    3  TYR        0.000000
    214  HE1       44.6400    3.4500   35.8300  HE1    3  TYR        0.000000
    215  CE2       46.7400    1.6800   33.8100  CE2    3  TYR        0.000000
    216  HE2       46.9000    0.8100   33.2000  HE2    3  TYR        0.000000
    217  CZ        45.5800    1.9300   34.5600   CZ    3  TYR        0.000000
    218  OH        44.6200    0.9700   34.6700   OH    3  TYR        0.000000
    219  HH        43.8500    1.0600   35.2100   HH    3  TYR        0.000000
    220  C         49.8100    7.0700   34.5500    C    3  TYR        0.000000
    221  O         51.0350    7.1100   34.4600    O    3  TYR        0.000000
    222  N         49.2000    7.8800   35.4100    N    4  PHE        0.000000
    223  H         48.1900    7.8700   35.3400    H    4  PHE        0.000000
    224  CA        49.7300    8.7600   36.4400   CA    4  PHE        0.000000
    225  HA        50.7550    8.4000   36.5800   HA    4  PHE        0.000000
    226  CB        49.7500   10.2000   35.9300   CB    4  PHE        0.000000
    227  HB1       48.9000   10.4100   35.2800  HB1    4  PHE        0.000000
    228  HB2       49.7000   10.8900   36.7800  HB2    4  PHE        0.000000
    229  CG        50.9750   10.6800   35.2000   CG    4  PHE        0.000000
    230  CD1       51.2050   10.3700   33.8500  CD1    4  PHE        0.000000
    231  HD1       50.5250    9.7300   33.2900  HD1    4  PHE        0.000000
    232  CD2       51.8950   11.5400   35.8200  CD2    4  PHE        0.000000
    233  HD2       51.6450   11.9100   36.8100  HD2    4  PHE        0.000000
    234  CE1       52.3350   10.8800   33.2100  CE1    4  PHE        0.000000
    235  HE1       52.4150   10.5500   32.1800  HE1    4  PHE        0.000000
    236  CE2       53.0550   11.9700   35.1700  CE2    4  PHE        0.000000
    237  HE2       53.7650   12.6400   35.6300  HE2    4  PHE        0.000000
    238  CZ        53.3250   11.6300   33.8400   CZ    4  PHE        0.000000
    239  HZ        54.2650   11.9900   33.4300   HZ    4  PHE        0.000000
    240  C         49.0100    8.4800   37.7500    C    4  PHE        0.000000
    241  O         48.0200    7.7500   37.7400    O    4  PHE        0.000000
    242  N         49.6100    8.9700   38.8400    N    5  PHE        0.000000
    243  H         50.4350    9.5300   38.7100    H    5  PHE        0.000000
    244  CA        49.1400    8.7500   40.1900   CA    5  PHE        0.000000
    245  HA        48.0600    8.5700   40.1500   HA    5  PHE        0.000000
    246  CB        49.6700    7.4400   40.7600   CB    5  PHE        0.000000
    247  HB1       49.4800    7.3400   41.8300  HB1    5  PHE        0.000000
    248  HB2       49.1300    6.6300   40.2700  HB2    5  PHE        0.000000
    249  CG        51.1450    7.1100   40.6200   CG    5  PHE        0.000000
    250  CD1       52.0550    7.5500   41.5900  CD1    5  PHE        0.000000
    251  HD1       51.7150    7.9300   42.5400  HD1    5  PHE        0.000000
    252  CD2       51.5850    6.4000   39.5000  CD2    5  PHE        0.000000
    253  HD2       50.9350    6.0300   38.7200  HD2    5  PHE        0.000000
    254  CE1       53.4250    7.3600   41.3800  CE1    5  PHE        0.000000
    255  HE1       54.1850    7.6400   42.0900  HE1    5  PHE        0.000000
    256  CE2       52.9650    6.2200   39.2900  CE2    5  PHE        0.000000
    257  HE2       53.3250    5.6300   38.4600  HE2    5  PHE        0.000000
    258  CZ        53.8850    6.7700   40.1900   CZ    5  PHE        0.000000
    259  HZ        54.9050    6.4600   40.0300   HZ    5  PHE        0.000000
    260  C         49.3100    9.9200   41.1400    C    5  PHE        0.000000
    261  O         50.1900   10.7800   41.0100    O    5  PHE        0.000000
    262  N         48.4700    9.9900   42.1700    N    6  PHE        0.000000
    263  H         47.8700    9.1900   42.3300    H    6  PHE        0.000000
    264  CA        48.6000   10.8600   43.3300   CA    6  PHE        0.000000
    265  HA        49.6700   11.0600   43.3500   HA    6  PHE        0.000000
    266  CB        47.8400   12.1800   43.2400   CB    6  PHE        0.000000
    267  HB1       48.0800   12.7500   44.1400  HB1    6  PHE        0.000000
    268  HB2       48.1600   12.8400   42.4400  HB2    6  PHE        0.000000
    269  CG        46.3400   12.2600   43.2300   CG    6  PHE        0.000000
    270  CD1       45.7100   13.0000   44.2400  CD1    6  PHE        0.000000
    271  HD1       46.2600   13.4700   45.0500  HD1    6  PHE        0.000000
    272  CD2       45.5300   11.5300   42.3500  CD2    6  PHE        0.000000
    273  HD2       46.0400   10.9500   41.6000  HD2    6  PHE        0.000000
    274  CE1       44.3200   13.1200   44.2600  CE1    6  PHE        0.000000
    275  HE1       43.7400   13.8400   44.8200  HE1    6  PHE        0.000000
    276  CE2       44.1300   11.6400   42.3400  CE2    6  PHE        0.000000
    277  HE2       43.5300   11.1000   41.6200  HE2    6  PHE        0.000000
    278  CZ        43.5400   12.4700   43.2900   CZ    6  PHE        0.000000
    279  HZ        42.4800   12.6500   43.2800   HZ    6  PHE        0.000000
    280  C         48.3000   10.0100   44.5600    C    6  PHE        0.000000
    281  O1        48.9200   10.2300   45.6100   O1    6  PHE        0.000000
    282  O2        47.4200    9.1200   44.4600   O2    6  PHE        0.000000

@<TRIPOS>SUBSTRUCTURE
1 ****        1 TEMP                        0 ****  **** 0 ROOT
